11963529
  -OEChem-01221718253D

 40 42  0     1  0  0  0  0  0999 V2000
    2.0353   -1.8678   -1.5298 S   0  0  0  0  0  0  0  0  0  0  0  0
   -2.0048   -2.3710    0.0037 S   0  0  0  0  0  0  0  0  0  0  0  0
    2.5969    1.6341    0.5059 O   0  0  0  0  0  0  0  0  0  0  0  0
    2.7693   -1.0858    2.1460 O   0  0  0  0  0  0  0  0  0  0  0  0
   -1.6787   -2.7760    1.3576 O   0  0  0  0  0  0  0  0  0  0  0  0
   -3.0179   -3.0826   -0.7518 O   0  0  0  0  0  0  0  0  0  0  0  0
   -0.5644   -2.2764   -0.9195 N   0  0  0  0  0  0  0  0  0  0  0  0
    0.9769   -1.6848    0.8317 N   0  0  0  0  0  0  0  0  0  0  0  0
    3.1833   -1.4642   -0.1889 C   0  0  1  0  0  0  0  0  0  0  0  0
    3.8901   -0.1480   -0.4560 C   0  0  0  0  0  0  0  0  0  0  0  0
    2.9162    0.9898   -0.6277 C   0  0  0  0  0  0  0  0  0  0  0  0
    2.3070   -1.3868    1.0488 C   0  0  0  0  0  0  0  0  0  0  0  0
    0.6959   -1.9446   -0.4050 C   0  0  0  0  0  0  0  0  0  0  0  0
   -2.4874   -0.6708    0.0437 C   0  0  0  0  0  0  0  0  0  0  0  0
    2.2959    1.4914   -1.7167 C   0  0  0  0  0  0  0  0  0  0  0  0
    1.7232    2.6045    0.1295 C   0  0  0  0  0  0  0  0  0  0  0  0
    1.5052    2.5585   -1.2278 C   0  0  0  0  0  0  0  0  0  0  0  0
   -3.3106   -0.1785   -0.9540 C   0  0  0  0  0  0  0  0  0  0  0  0
   -2.0341    0.1358    1.0728 C   0  0  0  0  0  0  0  0  0  0  0  0
   -3.2455    1.9903    0.1084 C   0  0  0  0  0  0  0  0  0  0  0  0
   -3.6927    1.1625   -0.9213 C   0  0  0  0  0  0  0  0  0  0  0  0
   -2.4161    1.4769    1.1054 C   0  0  0  0  0  0  0  0  0  0  0  0
    1.2102    3.4690    1.2016 C   0  0  0  0  0  0  0  0  0  0  0  0
   -3.6534    3.4245    0.1433 C   0  0  0  0  0  0  0  0  0  0  0  0
    3.8959   -2.2853   -0.0638 H   0  0  0  0  0  0  0  0  0  0  0  0
    4.5183   -0.2245   -1.3526 H   0  0  0  0  0  0  0  0  0  0  0  0
    4.5665    0.0891    0.3753 H   0  0  0  0  0  0  0  0  0  0  0  0
   -0.6358   -2.5039   -1.9192 H   0  0  0  0  0  0  0  0  0  0  0  0
    2.3864    1.1594   -2.7408 H   0  0  0  0  0  0  0  0  0  0  0  0
    0.8584    3.2115   -1.7963 H   0  0  0  0  0  0  0  0  0  0  0  0
   -3.6625   -0.8043   -1.7682 H   0  0  0  0  0  0  0  0  0  0  0  0
   -1.3859   -0.2429    1.8568 H   0  0  0  0  0  0  0  0  0  0  0  0
   -4.3360    1.5515   -1.7061 H   0  0  0  0  0  0  0  0  0  0  0  0
   -2.0585    2.1129    1.9108 H   0  0  0  0  0  0  0  0  0  0  0  0
    0.4212    4.1310    0.8314 H   0  0  0  0  0  0  0  0  0  0  0  0
    0.7918    2.8678    2.0149 H   0  0  0  0  0  0  0  0  0  0  0  0
    2.0128    4.0904    1.6101 H   0  0  0  0  0  0  0  0  0  0  0  0
   -3.7634    3.7768    1.1745 H   0  0  0  0  0  0  0  0  0  0  0  0
   -2.9021    4.0405   -0.3608 H   0  0  0  0  0  0  0  0  0  0  0  0
   -4.6189    3.5753   -0.3516 H   0  0  0  0  0  0  0  0  0  0  0  0
  1  9  1  0  0  0  0
  1 13  1  0  0  0  0
  2  5  2  0  0  0  0
  2  6  2  0  0  0  0
  2  7  1  0  0  0  0
  2 14  1  0  0  0  0
  3 11  1  0  0  0  0
  3 16  1  0  0  0  0
  4 12  2  0  0  0  0
  7 13  1  0  0  0  0
  7 28  1  0  0  0  0
  8 12  1  0  0  0  0
  8 13  2  0  0  0  0
  9 10  1  0  0  0  0
  9 12  1  0  0  0  0
  9 25  1  0  0  0  0
 10 11  1  0  0  0  0
 10 26  1  0  0  0  0
 10 27  1  0  0  0  0
 11 15  2  0  0  0  0
 14 18  2  0  0  0  0
 14 19  1  0  0  0  0
 15 17  1  0  0  0  0
 15 29  1  0  0  0  0
 16 17  2  0  0  0  0
 16 23  1  0  0  0  0
 17 30  1  0  0  0  0
 18 21  1  0  0  0  0
 18 31  1  0  0  0  0
 19 22  2  0  0  0  0
 19 32  1  0  0  0  0
 20 21  2  0  0  0  0
 20 22  1  0  0  0  0
 20 24  1  0  0  0  0
 21 33  1  0  0  0  0
 22 34  1  0  0  0  0
 23 35  1  0  0  0  0
 23 36  1  0  0  0  0
 23 37  1  0  0  0  0
 24 38  1  0  0  0  0
 24 39  1  0  0  0  0
 24 40  1  0  0  0  0
M  END
> <PUBCHEM_COMPOUND_CID>
11963529

> <PUBCHEM_CONFORMER_RMSD>
0.8

> <PUBCHEM_CONFORMER_DIVERSEORDER>
1
45
124
191
221
40
200
218
135
97
26
57
238
24
143
25
154
189
120
204
109
244
174
233
234
126
53
145
61
71
86
54
41
196
105
156
197
137
96
62
225
52
236
139
76
219
46
60
175
195
29
3
214
36
110
231
241
138
213
155
164
198
19
167
79
235
208
223
129
229
242
20
133
165
106
23
217
128
187
157
68
104
93
246
162
215
232
239
95
44
212
77
56
18
50
226
171
163
73
38
4
114
185
59
168
188
134
166
85
100
216
130
21
55
202
39
92
183
127
88
108
178
190
72
179
48
148
47
16
80
89
2
211
87
58
37
193
177
14
176
203
199
227
74
182
151
210
141
11
17
107
132
103
66
240
228
186
22
180
160
150
90
64
147
152
83
102
15
207
224
65
136
230
194
42
146
67
140
220
184
181
49
131
69
192
112
158
173
43
70
172
51
206
113
94
169
142
125
201
149
123
63
10
122
5
247
8
144
119
101
99
75
209
84
170
9
205
118
91
34
161
12
116
27
115
30
117
121
237
31
6
32
28
78
222
111
7
243
98
81
13
35
159
245
82
33
153

> <PUBCHEM_MMFF94_PARTIAL_CHARGES>
31
1 -0.37
10 0.18
11 -0.04
12 0.72
13 0.83
14 -0.01
15 -0.15
16 -0.04
17 -0.15
18 -0.15
19 -0.15
2 1.45
20 -0.14
21 -0.15
22 -0.15
23 0.18
24 0.14
28 0.42
29 0.15
3 -0.28
30 0.15
31 0.15
32 0.15
33 0.15
34 0.15
4 -0.57
5 -0.65
6 -0.65
7 -0.79
8 -0.66
9 0.29

> <PUBCHEM_EFFECTIVE_ROTOR_COUNT>
5.4

> <PUBCHEM_PHARMACOPHORE_FEATURES>
10
1 3 acceptor
1 4 acceptor
1 5 acceptor
1 6 acceptor
1 7 donor
1 8 acceptor
1 8 donor
5 1 8 9 12 13 rings
5 3 11 15 16 17 rings
6 14 18 19 20 21 22 rings

> <PUBCHEM_HEAVY_ATOM_COUNT>
24

> <PUBCHEM_ATOM_DEF_STEREO_COUNT>
0

> <PUBCHEM_ATOM_UDEF_STEREO_COUNT>
1

> <PUBCHEM_BOND_DEF_STEREO_COUNT>
0

> <PUBCHEM_BOND_UDEF_STEREO_COUNT>
0

> <PUBCHEM_ISOTOPIC_ATOM_COUNT>
0

> <PUBCHEM_COMPONENT_COUNT>
1

> <PUBCHEM_CACTVS_TAUTO_COUNT>
3

> <PUBCHEM_CONFORMER_ID>
00B68C8900000001

> <PUBCHEM_MMFF94_ENERGY>
25.4948

> <PUBCHEM_FEATURE_SELFOVERLAP>
50.849

> <PUBCHEM_SHAPE_FINGERPRINT>
10675989 125 17761775061583034452
12156800 1 13246020814171410152
12422481 6 18337654344998121816
12633257 1 18115861906365452039
128993 33 18191605218019938189
13122387 1 18049442535146375181
13583140 156 17530967943449360059
14223421 5 18192437591329859807
14251757 17 17766608742753011516
14713325 29 16163323083869329628
17093844 170 17908987600046869388
17859628 37 18191870024275799334
17980427 23 18055319609538434538
18981168 100 18201161060792270806
192875 21 18268689685036524887
19930381 70 17548130486518854039
20600515 1 18192703450132315530
20905425 154 18268716197563616535
22113638 7 18266456503611045261
22749437 52 18412259562336494885
23227448 37 18340771442998154127
238 59 18268147732872427349
3052486 1 17326902768505744958
350125 39 18265627647921069271
474 4 18122065291504544833
5895379 119 18342452630288628130
5939293 188 18338515236136917116
70251023 43 18196098956487520562
7832392 63 18410296887126496206

> <PUBCHEM_SHAPE_MULTIPOLES>
468.17
7.02
4.46
1.52
2.32
1.08
-0.17
1.76
0.72
1.41
-0.2
-0.68
-0.07
-0.44

> <PUBCHEM_SHAPE_SELFOVERLAP>
982.142

> <PUBCHEM_SHAPE_VOLUME>
267.5

> <PUBCHEM_COORDINATE_TYPE>
2
5
10

$$$$

