
118214
  -OEChem-03010813452D

  2  1  0     0  0  0  0  0  0999 V2000
   -0.0249   -0.0199    0.0000 Cl  0  0  0  0  0  0  0  0  0  0  0  0
   -0.5249    0.8460    0.0000 Na  0  0  0  0  0  0  0  0  0  0  0  0
  1  2  1  0  0  0  0
M  END
> <PUBCHEM_COMPOUND_ID_TYPE>
0

> <PUBCHEM_TOTAL_CHARGE>
0

> <PUBCHEM_SUBSTANCE_ID>
118214

> <PUBCHEM_SUBSTANCE_VERSION>
2

> <PUBCHEM_EXT_DATASOURCE_NAME>
DTP/NCI

> <PUBCHEM_EXT_DATASOURCE_REGID>
77364

> <PUBCHEM_SUBSTANCE_COMMENT>
DTP/NCI from molfile.  Release-June 2007.
Structure Evaluation:No Comparision - Unparameterized Atom - Na.
Deposition record created from database webdb on host dtpiv1.ncifcrf.gov on Feb 22, 2008

> <PUBCHEM_SUBSTANCE_SYNONYM>
7647-14-5
Common salt
Flexivial
Gingivyl
Halite
Hyposaline
Iodized salt
NSC77364
Natriumchlorid
Rock Salt
SS Salt
Saline
Salt
Sea salt
Slow Sodium
Sodium chloric
Sodium chloride
Sodium chloride (Na4Cl4)
Sodium chloride (NaCl)
Sodium chloride brine, purified
Sodium chloride, hypertonic
Sodium chloride, isotonic
Sodium monochloride
Table salt
Trisodium trichloride
WLN: NA G

> <PUBCHEM_GENERIC_REGISTRY_NAME>
7647-14-5

> <PUBCHEM_XREF_EXT_ID>
77364

> <PUBCHEM_EXT_DATASOURCE_URL>
http://dtp.nci.nih.gov/

> <PUBCHEM_EXT_SUBSTANCE_URL>
http://dtp.nci.nih.gov/dtpstandard/servlet/dwindex?searchtype=NSC&outputformat=html&searchlist=77364

> <PUBCHEM_CID_ASSOCIATIONS>
5234  1
313  2
5360545  2

$$$$
